@<TRIPOS>MOLECULE
MOL
   12    11     1     0     0
SMALL
bcc


@<TRIPOS>ATOM
      1 O1           1.8970    -0.0050     0.0000 o          1 MOL      -0.604100
      2 N1          -0.4460    -0.0120     0.0000 n          1 MOL      -0.494800
      3 C1          -0.6210     1.4310     0.0000 c3         1 MOL       0.079300
      4 C2          -1.6460    -0.8320     0.0000 c3         1 MOL       0.079300
      5 C3           0.8160    -0.5830     0.0000 c          1 MOL       0.660900
      6 H1          -1.1820     1.7180     0.8940 h1         1 MOL       0.041700
      7 H2          -1.1820     1.7180    -0.8940 h1         1 MOL       0.041700
      8 H3           0.3430     1.9460     0.0000 h1         1 MOL       0.041700
      9 H4          -2.2320    -0.6000     0.8940 h1         1 MOL       0.041700
     10 H5          -1.3970    -1.8960     0.0000 h1         1 MOL       0.041700
     11 H6          -2.2320    -0.6000    -0.8940 h1         1 MOL       0.041700
     12 H7           0.7700    -1.6850     0.0000 h5         1 MOL       0.028200
@<TRIPOS>BOND
     1     1     5 2   
     2     2     3 1   
     3     2     4 1   
     4     2     5 1   
     5     3     6 1   
     6     3     7 1   
     7     3     8 1   
     8     4     9 1   
     9     4    10 1   
    10     4    11 1   
    11     5    12 1   
@<TRIPOS>SUBSTRUCTURE
     1 MOL         1 TEMP              0 ****  ****    0 ROOT
